Circuit: * D:\Github\pulseAnalysis\Hardware\ChargeAmplifierAndGausianPulseShaper\Simulations\chargeAmplifier.asc

Direct Newton iteration for .op point succeeded.

Date: Sun Nov 17 00:30:44 2019
Total elapsed time: 0.070 seconds.

tnom = 27
temp = 27
method = modified trap
totiter = 2190
traniter = 2170
tranpoints = 1086
accept = 1079
rejected = 7
matrix size = 30
fillins = 20
solver = Normal
Thread vector: 6.9/4.1[3] 1.8/2.0[1] 1.1/1.2[1] 0.1/0.9[1]  2592/500
Matrix Compiler1: 2.40 KB object code size  0.5/0.3/[0.2]
Matrix Compiler2: 3.22 KB object code size  0.3/0.4/[0.2]

