Circuit: * D:\Github\pulseAnalysis\Hardware\ChargeAmplifierAndGausianPulseShaper\Simulations\Draft8.asc

Direct Newton iteration for .op point succeeded.

Date: Mon Apr 27 10:10:21 2020
Total elapsed time: 0.024 seconds.

tnom = 27
temp = 27
method = trap
totiter = 7
traniter = 0
tranpoints = 0
accept = 0
rejected = 0
matrix size = 10
fillins = 0
solver = Normal
Matrix Compiler1:      25 opcodes
Matrix Compiler2: 762 bytes object code size
