Circuit: * D:\Github\pulseAnalysis\Hardware\ChargeAmplifierAndGausianPulseShaper\Simulations\Draft2.asc

C1: Increased Cpar to 0.008
.OP point found by inspection.
Heightened Def Con from 5.00045e-006 to 5.00445e-006
Heightened Def Con from 5.00537e-006 to 5.00837e-006
Heightened Def Con from 5.01626e-006 to 5.01639e-006
Heightened Def Con from 5.02069e-006 to 5.02369e-006
Heightened Def Con from 5.03706e-006 to 5.04006e-006
Heightened Def Con from 5.26273e-006 to 5.26486e-006
Heightened Def Con from 5.33952e-006 to 5.34352e-006
Heightened Def Con from 1e-005 to 1.0002e-005

Date: Tue Feb 18 16:32:03 2020
Total elapsed time: 35.949 seconds.

tnom = 27
temp = 27
method = modified trap
totiter = 7689948
traniter = 7689948
tranpoints = 1775841
accept = 1313293
rejected = 462556
matrix size = 24
fillins = 20
solver = Normal
Matrix Compiler1: 2.49 KB object code size  0.4/0.2/[0.1]
Matrix Compiler2: 2.25 KB object code size  0.1/0.2/[0.1]

