Circuit: * D:\Github\pulseAnalysis\Hardware\ChargeAmplifierAndGausianPulseShaper\Simulations\Draft11.asc

WARNING: Less than two connections to node U1:OUT.  This node is used by E:U1:_E8.
WARNING: Less than two connections to node U1:_U8:NZ1.  This node is used by E:U1:_U8:Z1.
WARNING: Less than two connections to node U1:_U8:NZ2.  This node is used by E:U1:_U8:Z2.
WARNING: Less than two connections to node U1:_U9:NZ1.  This node is used by E:U1:_U9:Z1.
WARNING: Less than two connections to node U1:_U9:NZ2.  This node is used by E:U1:_U9:Z2.
Direct Newton iteration for .op point succeeded.
Ignoring empty pin current: Ix(u1:gnd)
Ignoring empty pin current: Ix(u1:gnd)

Date: Mon Apr 27 13:02:57 2020
Total elapsed time: 0.034 seconds.

tnom = 27
temp = 27
method = trap
totiter = 6
traniter = 0
tranpoints = 0
accept = 0
rejected = 0
matrix size = 138
fillins = 107
solver = Normal
Matrix Compiler1:     597 opcodes
Matrix Compiler2: 12.42 KB object code size
