Circuit: * D:\Github\pulseAnalysis\Hardware\ChargeAmplifierAndGausianPulseShaper\Simulations\Draft1.asc

.OP point found by inspection.

Date: Thu Nov 21 09:02:54 2019
Total elapsed time: 346.202 seconds.

tnom = 27
temp = 27
method = modified trap
totiter = 72976956
traniter = 72976956
tranpoints = 36488479
accept = 24555971
rejected = 11932508
matrix size = 6
fillins = 0
solver = Normal
Matrix Compiler1: 200 bytes object code size  0.1/0.0/[0.0]
Matrix Compiler2: off  [0.0]/0.1/0.1

