Circuit: * D:\Github\pulseAnalysis\Hardware\ChargeAmplifierAndGausianPulseShaper\Simulations\Draft9.asc

Direct Newton iteration for .op point succeeded.

Date: Mon Apr 27 10:29:06 2020
Total elapsed time: 0.046 seconds.

tnom = 27
temp = 27
method = trap
totiter = 8
traniter = 0
tranpoints = 0
accept = 0
rejected = 0
matrix size = 14
fillins = 12
solver = Normal
Matrix Compiler1:      85 opcodes
Matrix Compiler2: 1.37 KB object code size
