Circuit: * D:\Github\pulseAnalysis\Hardware\ChargeAmplifierAndGausianPulseShaper\Simulations\Draft5.asc

Direct Newton iteration failed to find .op point.  (Use ".option noopiter" to skip.)
Starting Gmin stepping
Gmin = 10
Gmin = 1.07374
Gmin = 0.115292
Gmin = 0.0123794
Gmin = 0.00132923
Gmin = 0.000142725
Gmin = 1.5325e-005
Gmin = 1.6455e-006
Gmin = 1.76685e-007
vernier = 0.5
vernier = 0.25
vernier = 0.125
vernier = 0.0625
vernier = 0.03125
vernier = 0.015625
vernier = 0.0078125
vernier = 0.00390625
vernier = 0.00195313
Gmin = 1.76685e-007
vernier = 0.000976563
vernier = 0.000488281
Gmin = 0
Gmin stepping failed

Starting source stepping with srcstepmethod=0
Source Step = 3.0303%
Source Step = 33.3333%
Source Step = 63.6364%
Source Step = 93.9394%
Source stepping succeeded in finding the operating point.


Date: Sat Mar 14 22:13:40 2020
Total elapsed time: 0.131 seconds.

tnom = 27
temp = 27
method = modified trap
totiter = 4200
traniter = 2275
tranpoints = 1110
accept = 1092
rejected = 18
matrix size = 25
fillins = 33
solver = Normal
Matrix Compiler1: 2.47 KB object code size  0.4/0.2/[0.1]
Matrix Compiler2: 2.75 KB object code size  0.2/0.3/[0.2]

