Circuit: * D:\Github\pulseAnalysis\Hardware\ChargeAmplifierAndGausianPulseShaper\Simulations\Draft10.asc

Fatal Error: Missing expression in "a3=3d0 ="
