Circuit: * D:\Dropbox (icts)\Altium\PulseAmplifier\pulseShaperSimulation.asc

Limiting rise time of source v1 to 1e-010
Limiting fall time of source v1 to 1e-010
Direct Newton iteration for .op point succeeded.

Date: Sat Nov 02 11:43:04 2019
Total elapsed time: 0.197 seconds.

tnom = 27
temp = 27
method = modified trap
totiter = 2946
traniter = 2935
tranpoints = 1434
accept = 1335
rejected = 99
matrix size = 54
fillins = 68
solver = Normal
Thread vector: 20.0/9.8[8] 7.6/3.0[8] 6.7/2.9[8] 0.3/1.8[1]  2592/500
Matrix Compiler1: 6.83 KB object code size  3.4/1.8/[0.5]
Matrix Compiler2: 7.83 KB object code size  1.5/1.5/[0.4]

