Circuit: * D:\Github\pulseAnalysis\Hardware\ChargeAmplifierAndGausianPulseShaper\Simulations\pulseShaperSimulation.asc

Direct Newton iteration failed to find .op point.  (Use ".option noopiter" to skip.)
Starting Gmin stepping
Gmin = 10
Gmin = 1.07374
vernier = 0.5
vernier = 0.25
vernier = 0.125
vernier = 0.0625
Gmin = 1.08884
vernier = 0.03125
vernier = 0.015625
Gmin = 1.04732
vernier = 0.0078125
vernier = 0.0104167
vernier = 0.00520833
Gmin = 1.0358
vernier = 0.00260417
Gmin = 1.02841
vernier = 0.00347222
vernier = 0.00173611
vernier = 0.00231481
Gmin = 1.02441
vernier = 0.00115741
vernier = 0.00154321
Gmin = 1.02174
vernier = 0.000771604
vernier = 0.00102881
Gmin = 1.01984
vernier = 0.00137174
vernier = 0.00068587
Gmin = 1.01809
vernier = 0.000914493
vernier = 0.000457247
vernier = 0.000609662
Gmin = 1.01703
vernier = 0.000812882
vernier = 0.000406441
Gmin = 1.01599
vernier = 0.000541921
vernier = 0.000722562
vernier = 0.000541921
Gmin = 1.01493
vernier = 0.000406441
vernier = 0.000541921
vernier = 0.000406441
Gmin = 1.01434
vernier = 0.000541921
vernier = 0.000406441
Gmin = 1.01352
Gmin = 0
Gmin stepping failed

Starting source stepping with srcstepmethod=0
Source Step = 3.0303%
Source Step = 33.3333%
Source Step = 63.6364%
Source Step = 93.9394%
Source stepping succeeded in finding the operating point.


Date: Sun Nov 17 00:28:23 2019
Total elapsed time: 20.698 seconds.

tnom = 27
temp = 27
method = modified trap
totiter = 14302
traniter = 4271
tranpoints = 1540
accept = 1420
rejected = 120
matrix size = 621
fillins = 1643
solver = Normal
Thread vector: 60.9/18.3[12] 17.6/9.2[12] 4.0/8.4[1] 2.1/5.2[1]  2592/500
Matrix Compiler1: 117.46 KB object code size  62.9/23.4/[10.7]
Matrix Compiler2: 73.80 KB object code size  20.0/21.2/[4.4]

