Circuit: * D:\Github\pulseAnalysis\Hardware\ChargeAmplifierAndGausianPulseShaper\pulseShaperSimulation.asc

Direct Newton iteration failed to find .op point.  (Use ".option noopiter" to skip.)
Starting Gmin stepping
Gmin = 10
Gmin = 1.07374
vernier = 0.5
vernier = 0.25
vernier = 0.125
vernier = 0.0625
Gmin = 1.08884
vernier = 0.03125
vernier = 0.015625
Gmin = 1.03122
vernier = 0.0078125
vernier = 0.0104167
vernier = 0.00520833
Gmin = 1.01724
vernier = 0.00260417
vernier = 0.00347222
Gmin = 1.01042
vernier = 0.00173611
vernier = 0.00231481
vernier = 0.00115741
Gmin = 1.00852
vernier = 0.00154321
vernier = 0.000771604
Gmin = 1.00667
vernier = 0.00102881
vernier = 0.000514403
vernier = 0.00068587
Gmin = 1.00542
vernier = 0.000514403
vernier = 0.00068587
vernier = 0.000514402
Gmin = 1.00461
Gmin = 0
Gmin stepping failed

Starting source stepping with srcstepmethod=0
Source Step = 3.0303%
Source Step = 33.3333%
Source Step = 63.6364%
Source Step = 93.9394%
Source stepping succeeded in finding the operating point.


Date: Tue Sep 29 17:46:27 2020
Total elapsed time: 1.334 seconds.

tnom = 27
temp = 27
method = modified trap
totiter = 9673
traniter = 3575
tranpoints = 1682
accept = 1528
rejected = 154
matrix size = 64
fillins = 113
solver = Normal
Thread vector: 20.9/10.8[9] 15.7/4.8[9] 8.8/5.3[9] 0.3/2.3[1]  2592/500
Matrix Compiler1: 9.13 KB object code size  5.3/3.0/[1.3]
Matrix Compiler2: 9.43 KB object code size  1.6/2.8/[0.5]

